Version 4
SHEET 1 1956 1344
WIRE 352 32 240 32
WIRE 480 32 352 32
WIRE 688 32 480 32
WIRE 928 32 688 32
WIRE 1040 32 1040 0
WIRE 1040 32 928 32
WIRE 1136 32 1040 32
WIRE 1248 32 1136 32
WIRE 1456 32 1392 32
WIRE 1504 32 1456 32
WIRE 1632 32 1584 32
WIRE 1776 32 1632 32
WIRE 688 64 688 32
WIRE 1456 80 1456 32
WIRE 1776 80 1776 32
WIRE 1872 80 1776 80
WIRE 928 112 752 112
WIRE 1152 112 1152 96
WIRE 352 128 352 96
WIRE 352 128 0 128
WIRE 928 128 928 112
WIRE 1120 128 1040 128
WIRE 1216 144 1184 144
WIRE 1296 144 1296 96
WIRE 1296 144 1216 144
WIRE 1408 144 1296 144
WIRE 1632 144 1632 32
WIRE 1632 144 1504 144
WIRE 1776 144 1776 80
WIRE 1872 144 1872 80
WIRE 1120 160 1056 160
WIRE 688 176 688 160
WIRE 864 176 688 176
WIRE 1136 176 1136 32
WIRE 1152 176 1136 176
WIRE 240 208 240 96
WIRE 240 208 112 208
WIRE 352 208 352 128
WIRE 0 224 0 208
WIRE 1056 224 1056 160
WIRE 1136 224 1056 224
WIRE 1632 224 1632 144
WIRE 1632 224 1216 224
WIRE 0 240 0 224
WIRE 1056 240 1056 224
WIRE 688 256 688 176
WIRE 928 256 928 224
WIRE 976 256 928 256
WIRE 1040 256 1040 128
WIRE 1040 256 976 256
WIRE 304 272 240 272
WIRE 352 272 304 272
WIRE 976 288 976 256
WIRE 304 304 304 272
WIRE 928 304 928 256
WIRE 112 320 112 208
WIRE 112 320 0 320
WIRE 688 368 688 336
WIRE 928 384 928 368
WIRE 976 384 976 352
WIRE 512 560 512 544
WIRE 512 560 384 560
WIRE 672 560 512 560
WIRE 816 560 672 560
WIRE 992 560 816 560
WIRE 1232 560 1136 560
WIRE 384 624 384 560
WIRE 672 672 672 640
WIRE 672 672 448 672
WIRE 672 704 672 672
WIRE 384 752 384 720
WIRE 608 752 384 752
WIRE 384 800 384 752
WIRE 992 816 992 800
WIRE 816 848 816 560
WIRE 672 864 672 800
WIRE 704 864 672 864
WIRE 784 864 704 864
WIRE 992 880 848 880
WIRE 1088 880 1088 624
WIRE 1088 880 992 880
WIRE 784 896 752 896
WIRE 672 912 672 864
WIRE 704 912 704 864
WIRE 704 928 704 912
WIRE 816 944 816 912
WIRE 752 992 752 896
WIRE 816 992 752 992
WIRE 1152 992 896 992
WIRE 1232 992 1232 560
WIRE 1232 992 1152 992
WIRE 384 1008 384 880
WIRE 704 1008 704 976
WIRE 752 1008 752 992
WIRE 1152 1024 1152 992
WIRE 1232 1024 1232 992
WIRE 672 1040 672 976
WIRE 752 1120 752 1088
WIRE 1152 1120 1152 1088
WIRE 1232 1152 1232 1104
FLAG 1056 320 0
FLAG 928 384 0
FLAG 976 384 0
FLAG 1216 80 0
FLAG 1872 224 0
FLAG 1776 208 0
FLAG 0 224 0
FLAG 480 96 0
FLAG 688 368 0
FLAG 384 1008 0
FLAG 672 1040 0
FLAG 752 1120 0
FLAG 1232 1152 0
FLAG 704 1008 0
FLAG 1152 1120 0
FLAG 992 800 0
FLAG 240 336 0
FLAG 1040 0 VAC+
FLAG 816 944 VAC+
FLAG 304 304 VAC-
FLAG 1152 96 VAC-
FLAG 512 544 VAC-
SYMBOL voltage 0 112 R0
WINDOW 0 49 37 Left 2
WINDOW 3 42 61 Left 2
WINDOW 123 0 0 Left 2
WINDOW 39 0 0 Left 2
SYMATTR InstName V1
SYMATTR Value SINE(0 14 60)
SYMBOL diode 256 96 R180
WINDOW 0 75 32 Left 2
WINDOW 3 24 0 Left 2
SYMATTR InstName D1
SYMATTR Value D1N4007
SYMBOL diode 368 96 R180
WINDOW 0 -37 39 Left 2
WINDOW 3 -86 -1 Left 2
SYMATTR InstName D2
SYMATTR Value D1N4007
SYMBOL diode 256 272 R180
WINDOW 0 59 56 Left 2
WINDOW 3 34 27 Left 2
SYMATTR InstName D3
SYMATTR Value D1N4007
SYMBOL diode 368 272 R180
WINDOW 0 -37 63 Left 2
WINDOW 3 -106 33 Left 2
SYMATTR InstName D4
SYMATTR Value D1N4007
SYMBOL Opamps\\UniversalOpamp2 1152 144 M180
SYMATTR InstName U1
SYMBOL res 912 16 R0
SYMATTR InstName R2
SYMATTR Value 36
SYMBOL res 1040 224 R0
SYMATTR InstName R3
SYMATTR Value 1700
SYMBOL res 1232 208 R90
WINDOW 0 0 56 VBottom 2
WINDOW 3 32 56 VTop 2
SYMATTR InstName R4
SYMATTR Value 1000
SYMBOL cap 960 288 R0
SYMATTR InstName C3
SYMATTR Value 10µ
SYMBOL cap 1200 80 R0
SYMATTR InstName C4
SYMATTR Value 10µ
SYMBOL res 1856 128 R0
SYMATTR InstName RL
SYMATTR Value 50
SYMBOL cap 1760 144 R0
SYMATTR InstName C5
SYMATTR Value 100n
SYMBOL SBORKA\\Darlington\\tip121 1312 32 R270
SYMATTR InstName U4
SYMBOL voltage 0 336 R180
WINDOW 0 24 96 Left 2
WINDOW 3 24 16 Left 2
WINDOW 123 0 0 Left 2
WINDOW 39 0 0 Left 2
SYMATTR InstName V2
SYMATTR Value SINE(0 14 60)
SYMBOL polcap 464 32 R0
SYMATTR InstName C6
SYMATTR Value 1000µ
SYMATTR SpiceLine V=60
SYMBOL polcap 256 336 R180
WINDOW 0 24 57 Left 2
WINDOW 3 24 8 Left 2
SYMATTR InstName C7
SYMATTR Value 1000µ
SYMATTR SpiceLine V=60
SYMBOL pnp 752 160 R180
SYMATTR InstName Q1
SYMATTR Value BC560A
SYMBOL pnp 864 224 M180
SYMATTR InstName Q2
SYMATTR Value BC560A
SYMBOL res 672 240 R0
SYMATTR InstName R1
SYMATTR Value 22k
SYMBOL SBORKA\\BJT\\BC850C 448 624 M0
SYMATTR InstName U2
SYMBOL res 368 896 M180
WINDOW 0 36 76 Left 2
WINDOW 3 36 40 Left 2
SYMATTR InstName R5
SYMATTR Value 4700
SYMBOL res 656 656 M180
WINDOW 0 36 76 Left 2
WINDOW 3 36 40 Left 2
SYMATTR InstName R6
SYMATTR Value 22
SYMBOL npn 608 704 R0
SYMATTR InstName Q3
SYMBOL EXTRA\\ExtraOpamps\\LM358_NS 816 880 M180
SYMATTR InstName U6
SYMBOL res 736 1104 M180
WINDOW 0 36 76 Left 2
WINDOW 3 36 40 Left 2
SYMATTR InstName R7
SYMATTR Value 1700
SYMBOL res 912 1008 M270
WINDOW 0 32 56 VTop 2
WINDOW 3 0 56 VBottom 2
SYMATTR InstName R8
SYMATTR Value 1k
SYMBOL SBORKA\\Darlington\\tip127 1072 560 R270
SYMATTR InstName U7
SYMBOL res 1216 1120 M180
WINDOW 0 36 76 Left 2
WINDOW 3 36 40 Left 2
SYMATTR InstName R9
SYMATTR Value 15
SYMBOL cap 688 976 M180
WINDOW 0 24 56 Left 2
WINDOW 3 24 8 Left 2
SYMATTR InstName C1
SYMATTR Value 10µ
SYMBOL cap 1136 1088 M180
WINDOW 0 24 56 Left 2
WINDOW 3 24 8 Left 2
SYMATTR InstName C2
SYMATTR Value 1000µ
SYMBOL cap 976 880 M180
WINDOW 0 24 56 Left 2
WINDOW 3 24 8 Left 2
SYMATTR InstName C8
SYMATTR Value 10µ
SYMBOL SBORKA\\BJT\\BC850C 1408 80 M90
SYMATTR InstName U8
SYMBOL res 1600 16 R90
WINDOW 0 0 56 VBottom 2
WINDOW 3 32 56 VTop 2
SYMATTR InstName R10
SYMATTR Value 3.9
SYMBOL EXTRA\\DIODES.COM\\ZENER\\1N5221B 944 368 R180
WINDOW 0 24 72 Left 2
WINDOW 3 24 0 Left 2
SYMATTR InstName U9
SYMBOL EXTRA\\DIODES.COM\\ZENER\\1N5221B 688 912 M0
SYMATTR InstName U3
TEXT 72 -40 Left 2 !.tran 70ms
TEXT 72 -8 Left 2 !#.step temp 0 100 25
