Version 4
SHEET 1 1852 808
WIRE 352 32 240 32
WIRE 480 32 352 32
WIRE 688 32 480 32
WIRE 928 32 688 32
WIRE 1200 32 928 32
WIRE 1248 32 1200 32
WIRE 1424 32 1392 32
WIRE 1456 32 1424 32
WIRE 1504 32 1456 32
WIRE 688 64 688 32
WIRE 1504 80 1504 32
WIRE 1456 96 1456 32
WIRE 928 112 752 112
WIRE 352 128 352 96
WIRE 352 128 0 128
WIRE 928 128 928 112
WIRE 1120 128 1040 128
WIRE 1216 144 1184 144
WIRE 1296 144 1296 96
WIRE 1296 144 1216 144
WIRE 1120 160 1056 160
WIRE 688 176 688 160
WIRE 864 176 688 176
WIRE 1200 176 1200 32
WIRE 1200 176 1152 176
WIRE 688 192 688 176
WIRE 240 208 240 96
WIRE 240 208 112 208
WIRE 352 208 352 128
WIRE 0 224 0 208
WIRE 1056 224 1056 160
WIRE 1136 224 1056 224
WIRE 1424 224 1424 32
WIRE 1424 224 1216 224
WIRE 0 240 0 224
WIRE 1056 240 1056 224
WIRE 928 256 928 224
WIRE 976 256 928 256
WIRE 1040 256 1040 128
WIRE 1040 256 976 256
WIRE 352 272 240 272
WIRE 976 288 976 256
WIRE 928 304 928 256
WIRE 112 320 112 208
WIRE 112 320 0 320
WIRE 928 384 928 368
WIRE 976 384 976 352
WIRE 704 704 704 656
FLAG 240 336 0
FLAG 1056 320 0
FLAG 928 384 0
FLAG 976 384 0
FLAG 1216 80 0
FLAG 1504 160 0
FLAG 1456 160 0
FLAG 0 224 0
FLAG 480 96 0
FLAG 688 272 0
FLAG 1152 112 0
FLAG 704 576 0
SYMBOL voltage 0 112 R0
WINDOW 0 49 37 Left 2
WINDOW 3 42 61 Left 2
WINDOW 123 0 0 Left 2
WINDOW 39 0 0 Left 2
SYMATTR InstName V1
SYMATTR Value SINE(0 12 60)
SYMBOL diode 256 96 R180
WINDOW 0 75 32 Left 2
WINDOW 3 24 0 Left 2
SYMATTR InstName D1
SYMATTR Value D1N4007
SYMBOL diode 368 96 R180
WINDOW 0 -37 39 Left 2
WINDOW 3 -86 -1 Left 2
SYMATTR InstName D2
SYMATTR Value D1N4007
SYMBOL diode 256 272 R180
WINDOW 0 59 56 Left 2
WINDOW 3 34 27 Left 2
SYMATTR InstName D3
SYMATTR Value D1N4007
SYMBOL diode 368 272 R180
WINDOW 0 -37 63 Left 2
WINDOW 3 -106 33 Left 2
SYMATTR InstName D4
SYMATTR Value D1N4007
SYMBOL Opamps\\UniversalOpamp2 1152 144 M180
SYMATTR InstName U1
SYMBOL res 912 16 R0
SYMATTR InstName R2
SYMATTR Value 22
SYMBOL res 1040 224 R0
SYMATTR InstName R3
SYMATTR Value 1700
SYMBOL res 1232 208 R90
WINDOW 0 0 56 VBottom 2
WINDOW 3 32 56 VTop 2
SYMATTR InstName R4
SYMATTR Value 1000
SYMBOL cap 960 288 R0
SYMATTR InstName C3
SYMATTR Value 10µ
SYMBOL cap 1200 80 R0
SYMATTR InstName C4
SYMATTR Value 10µ
SYMBOL res 1488 64 R0
SYMATTR InstName RL
SYMATTR Value 10
SYMBOL cap 1440 96 R0
SYMATTR InstName C5
SYMATTR Value 100µ
SYMBOL SBORKA\\Darlington\\tip121 1312 32 R270
SYMATTR InstName U4
SYMBOL voltage 0 336 R180
WINDOW 0 24 96 Left 2
WINDOW 3 24 16 Left 2
WINDOW 123 0 0 Left 2
WINDOW 39 0 0 Left 2
SYMATTR InstName V2
SYMATTR Value SINE(0 12 60)
SYMBOL polcap 464 32 R0
SYMATTR InstName C6
SYMATTR Value 1000µ
SYMATTR SpiceLine V=60
SYMBOL polcap 224 272 R0
SYMATTR InstName C7
SYMATTR Value 100µ
SYMATTR SpiceLine V=60
SYMBOL pnp 752 160 R180
SYMATTR InstName Q1
SYMATTR Value BC560A
SYMBOL pnp 864 224 M180
SYMATTR InstName Q2
SYMATTR Value BC560A
SYMBOL res 672 176 R0
SYMATTR InstName R1
SYMATTR Value 4700
SYMBOL EXTRA\\DIODES.COM\\ZENER\\1N4728A 944 368 R180
WINDOW 0 24 72 Left 2
WINDOW 3 24 0 Left 2
SYMATTR InstName U5
SYMBOL SBORKA\\BJT\\BC850C 768 800 R180
SYMATTR InstName U2
SYMBOL res 688 560 R0
SYMATTR InstName R5
SYMATTR Value 4700
TEXT 72 -40 Left 2 !.tran 0.1s
TEXT 80 -8 Left 2 !#.step temp 0 100 25
