Version 4
SHEET 1 1852 1248
WIRE 352 32 240 32
WIRE 480 32 352 32
WIRE 688 32 480 32
WIRE 928 32 688 32
WIRE 1200 32 928 32
WIRE 1248 32 1200 32
WIRE 1424 32 1392 32
WIRE 1456 32 1424 32
WIRE 1552 32 1456 32
WIRE 688 64 688 32
WIRE 1456 96 1456 32
WIRE 1552 96 1552 32
WIRE 928 112 752 112
WIRE 352 128 352 96
WIRE 352 128 0 128
WIRE 928 128 928 112
WIRE 1120 128 1040 128
WIRE 1216 144 1184 144
WIRE 1296 144 1296 96
WIRE 1296 144 1216 144
WIRE 1120 160 1056 160
WIRE 688 176 688 160
WIRE 864 176 688 176
WIRE 1200 176 1200 32
WIRE 1200 176 1152 176
WIRE 240 208 240 96
WIRE 240 208 112 208
WIRE 352 208 352 128
WIRE 0 224 0 208
WIRE 1056 224 1056 160
WIRE 1136 224 1056 224
WIRE 1424 224 1424 32
WIRE 1424 224 1216 224
WIRE 0 240 0 224
WIRE 1056 240 1056 224
WIRE 688 256 688 176
WIRE 928 256 928 224
WIRE 976 256 928 256
WIRE 1040 256 1040 128
WIRE 1040 256 976 256
WIRE 304 272 240 272
WIRE 352 272 304 272
WIRE 976 288 976 256
WIRE 928 304 928 256
WIRE 112 320 112 208
WIRE 112 320 0 320
WIRE 688 368 688 336
WIRE 928 384 928 368
WIRE 976 384 976 352
WIRE 1536 656 1536 608
WIRE 1056 672 1056 640
WIRE 1056 768 1056 752
WIRE 1120 768 1056 768
WIRE 1536 768 1536 736
WIRE 1536 768 1200 768
WIRE 976 784 976 720
WIRE 1008 784 1008 752
WIRE 1008 848 1008 832
WIRE 1120 848 1120 816
WIRE 1056 864 1056 768
WIRE 1088 864 1056 864
WIRE 688 880 688 752
WIRE 1392 880 1152 880
WIRE 976 896 976 848
WIRE 1008 896 1008 848
WIRE 1008 896 976 896
WIRE 1088 896 1008 896
WIRE 976 960 976 896
WIRE 688 1008 688 960
WIRE 912 1008 688 1008
WIRE 688 1040 688 1008
WIRE 976 1088 976 1056
WIRE 976 1088 752 1088
WIRE 976 1120 976 1088
WIRE 1392 1136 1392 880
WIRE 304 1200 304 272
WIRE 688 1200 688 1136
WIRE 688 1200 304 1200
WIRE 976 1200 688 1200
WIRE 1120 1200 1120 912
WIRE 1120 1200 976 1200
WIRE 1296 1200 1120 1200
WIRE 1536 1200 1536 768
WIRE 1536 1200 1440 1200
FLAG 240 336 0
FLAG 1056 320 0
FLAG 928 384 0
FLAG 976 384 0
FLAG 1216 80 0
FLAG 1552 176 0
FLAG 1456 160 0
FLAG 0 224 0
FLAG 480 96 0
FLAG 688 368 0
FLAG 1152 112 0
FLAG 688 752 0
FLAG 976 720 0
FLAG 1120 816 0
FLAG 1056 640 0
FLAG 1536 608 0
FLAG 1008 752 0
SYMBOL voltage 0 112 R0
WINDOW 0 49 37 Left 2
WINDOW 3 42 61 Left 2
WINDOW 123 0 0 Left 2
WINDOW 39 0 0 Left 2
SYMATTR InstName V1
SYMATTR Value SINE(0 12 60)
SYMBOL diode 256 96 R180
WINDOW 0 75 32 Left 2
WINDOW 3 24 0 Left 2
SYMATTR InstName D1
SYMATTR Value D1N4007
SYMBOL diode 368 96 R180
WINDOW 0 -37 39 Left 2
WINDOW 3 -86 -1 Left 2
SYMATTR InstName D2
SYMATTR Value D1N4007
SYMBOL diode 256 272 R180
WINDOW 0 59 56 Left 2
WINDOW 3 34 27 Left 2
SYMATTR InstName D3
SYMATTR Value D1N4007
SYMBOL diode 368 272 R180
WINDOW 0 -37 63 Left 2
WINDOW 3 -106 33 Left 2
SYMATTR InstName D4
SYMATTR Value D1N4007
SYMBOL Opamps\\UniversalOpamp2 1152 144 M180
SYMATTR InstName U1
SYMBOL res 912 16 R0
SYMATTR InstName R2
SYMATTR Value 22
SYMBOL res 1040 224 R0
SYMATTR InstName R3
SYMATTR Value 1700
SYMBOL res 1232 208 R90
WINDOW 0 0 56 VBottom 2
WINDOW 3 32 56 VTop 2
SYMATTR InstName R4
SYMATTR Value 1000
SYMBOL cap 960 288 R0
SYMATTR InstName C3
SYMATTR Value 10µ
SYMBOL cap 1200 80 R0
SYMATTR InstName C4
SYMATTR Value 10µ
SYMBOL res 1536 80 R0
SYMATTR InstName RL
SYMATTR Value 10
SYMBOL cap 1440 96 R0
SYMATTR InstName C5
SYMATTR Value 100µ
SYMBOL SBORKA\\Darlington\\tip121 1312 32 R270
SYMATTR InstName U4
SYMBOL voltage 0 336 R180
WINDOW 0 24 96 Left 2
WINDOW 3 24 16 Left 2
WINDOW 123 0 0 Left 2
WINDOW 39 0 0 Left 2
SYMATTR InstName V2
SYMATTR Value SINE(0 12 60)
SYMBOL polcap 464 32 R0
SYMATTR InstName C6
SYMATTR Value 1000µ
SYMATTR SpiceLine V=60
SYMBOL polcap 224 272 R0
SYMATTR InstName C7
SYMATTR Value 1000µ
SYMATTR SpiceLine V=60
SYMBOL pnp 752 160 R180
SYMATTR InstName Q1
SYMATTR Value BC560A
SYMBOL pnp 864 224 M180
SYMATTR InstName Q2
SYMATTR Value BC560A
SYMBOL res 672 240 R0
SYMATTR InstName R1
SYMATTR Value 4700
SYMBOL EXTRA\\DIODES.COM\\ZENER\\1N4728A 944 368 R180
WINDOW 0 24 72 Left 2
WINDOW 3 24 0 Left 2
SYMATTR InstName U5
SYMBOL SBORKA\\BJT\\BC850C 752 1136 R180
SYMATTR InstName U2
SYMBOL res 672 864 R0
SYMATTR InstName R5
SYMATTR Value 4700
SYMBOL res 960 1104 R0
SYMATTR InstName R6
SYMATTR Value 22
SYMBOL EXTRA\\DIODES.COM\\ZENER\\1N4728A 992 848 R180
WINDOW 0 24 72 Left 2
WINDOW 3 24 0 Left 2
SYMATTR InstName U3
SYMBOL npn 912 1056 M180
SYMATTR InstName Q3
SYMBOL EXTRA\\ExtraOpamps\\LM358_NS 1120 880 R0
SYMATTR InstName U6
SYMBOL res 1040 656 R0
SYMATTR InstName R7
SYMATTR Value 1700
SYMBOL res 1216 752 R90
WINDOW 0 0 56 VBottom 2
WINDOW 3 32 56 VTop 2
SYMATTR InstName R8
SYMATTR Value 1k
SYMBOL SBORKA\\Darlington\\tip127 1376 1200 M90
SYMATTR InstName U7
SYMBOL res 1520 640 R0
SYMATTR InstName R9
SYMATTR Value 10
SYMBOL cap 992 784 R0
SYMATTR InstName C1
SYMATTR Value 10µ
TEXT 72 -40 Left 2 !.tran 0.6s
TEXT 80 -8 Left 2 !#.step temp 0 100 25
